Circuit: * C:\Users\bapel\Documents\GitHub\High-Current-5V-Regulator\4S Battery Meter.asc

Early termination of direct N-R iteration.
Direct Newton iteration failed to find .op point.  (Use ".option noopiter" to skip.)
Starting Gmin stepping
Gmin = 10
Gmin = 1.07374
Gmin = 0.115292
Gmin = 0.0123794
Gmin = 0.00132923
Gmin = 0.000142725
Gmin = 1.5325e-005
vernier = 0.5
vernier = 0.25
Gmin = 6.15678e-006
vernier = 0.333333
vernier = 0.166667
vernier = 0.222222
Gmin = 4.24051e-006
vernier = 0.296296
Gmin = 2.22479e-006
vernier = 0.395061
vernier = 0.526748
Gmin = 7.70821e-007
vernier = 0.702331
vernier = 0.936441
Gmin = 1.49718e-007
vernier = 1
Gmin = 1.69199e-008
Gmin = 1.81676e-009
Gmin = 1.95073e-010
Gmin = 2.09458e-011
Gmin = 2.24904e-012
Gmin = 2.41489e-013
Gmin = 0
Gmin stepping succeeded in finding the operating point.

Early termination of direct N-R iteration.
Direct Newton iteration failed to find .op point.  (Use ".option noopiter" to skip.)
Starting Gmin stepping
Gmin = 10
Gmin = 1.07374
Gmin = 0.115292
Gmin = 0.0123794
Gmin = 0.00132923
Gmin = 0.000142725
vernier = 0.5
Gmin = 2.39452e-005
vernier = 0.666667
Gmin = 6.14784e-006
vernier = 0.888888
vernier = 1
Gmin = 8.09366e-007
Gmin = 8.6905e-008
Gmin = 9.33136e-009
Gmin = 1.00195e-009
Gmin = 1.07583e-010
Gmin = 1.15517e-011
Gmin = 1.24035e-012
Gmin = 1.33182e-013
Gmin = 0
Gmin stepping succeeded in finding the operating point.

Early termination of direct N-R iteration.
Direct Newton iteration failed to find .op point.  (Use ".option noopiter" to skip.)
Starting Gmin stepping
Gmin = 10
Gmin = 1.07374
Gmin = 0.115292
Gmin = 0.0123794
Gmin = 0.00132923
Gmin = 0.000142725
vernier = 0.5
Gmin = 2.39452e-005
vernier = 0.666667
Gmin = 6.14784e-006
vernier = 0.888888
vernier = 1
Gmin = 8.09366e-007
Gmin = 8.6905e-008
Gmin = 9.33136e-009
Gmin = 1.00195e-009
Gmin = 1.07583e-010
Gmin = 1.15517e-011
Gmin = 1.24035e-012
Gmin = 1.33182e-013
Gmin = 0
Gmin stepping succeeded in finding the operating point.


Date: Sat Aug 31 13:53:26 2024
Total elapsed time: 0.198 seconds.

tnom = 27
temp = 27
method = trap
totiter = 4619
traniter = 0
tranpoints = 0
accept = 0
rejected = 0
matrix size = 65
fillins = 104
solver = Normal
Thread vector: 6.2/4.7[2] 0.0/0.0[0] 2.7/2.3[2] 0.3/1.1[1]  2592/500
Matrix Compiler1: 10.58 KB object code size  2.4/1.7/[0.8]
Matrix Compiler2: 7.35 KB object code size  0.8/1.2/[0.5]

