Circuit: * C:\Users\bapel\Documents\GitHub\High-Current-5V-Regulator\4S Battery Meter.asc

Early termination of direct N-R iteration.
Direct Newton iteration failed to find .op point.  (Use ".option noopiter" to skip.)
Starting Gmin stepping
Gmin = 10
Gmin = 1.07374
Gmin = 0.115292
Gmin = 0.0123794
Gmin = 0.00132923
Gmin = 0.000142725
Gmin = 1.5325e-005
Gmin = 1.6455e-006
Gmin = 1.76685e-007
Gmin = 1.89714e-008
Gmin = 2.03704e-009
Gmin = 2.18725e-010
Gmin = 2.34854e-011
Gmin = 2.52173e-012
Gmin = 2.70769e-013
Gmin = 0
Gmin stepping succeeded in finding the operating point.


Date: Fri Sep 06 13:38:56 2024
Total elapsed time: 0.080 seconds.

tnom = 27
temp = 27
method = trap
totiter = 2765
traniter = 0
tranpoints = 0
accept = 0
rejected = 0
matrix size = 65
fillins = 114
solver = Normal
Thread vector: 15.4/3.1[2] 0.0/0.0[0] 0.9/0.9[1] 0.2/0.4[1]  2592/500
Matrix Compiler1:     603 opcodes  1.9/[0.7]/1.0
Matrix Compiler2: off  [0.4]/0.5/0.6

