Circuit: * C:\Users\bapel\Documents\GitHub\High-Current-5V-Regulator\Draft1.asc


Date: Fri Sep 20 13:59:33 2024
Total elapsed time: 0.084 seconds.

tnom = 27
temp = 27
method = trap
totiter = 2021
traniter = 0
tranpoints = 0
accept = 0
rejected = 0
matrix size = 11
fillins = 0
solver = Normal
Matrix Compiler1:      28 opcodes  0.1/[0.1]/0.1
Matrix Compiler2:      64 opcodes  0.1/[0.1]/0.1

